# Packages
 &PACKAGES
 useCAL         = .TRUE.,
 useEXF         = .FALSE.,
 useOBCS	= .FALSE.,
 useKPP		= .TRUE.,
 useDIAGNOSTICS	= .TRUE.,
 &